91
C8
Ir                0.3942340000        0.0000230000        0.0000400000
Cl                4.6971990000        4.8268900000        0.7158250000
Cl                4.6968460000       -4.8271090000       -0.7161190000
Cl                4.0453020000        3.8118260000       -2.2216570000
Cl                4.0452090000       -3.8120600000        2.2214250000
N                 0.4693840000        0.2856260000        2.0651210000
N                -1.3753260000       -1.3313420000       -0.0061380000
N                 0.4692120000       -0.2855670000       -2.0650470000
N                -1.3753140000        1.3313860000        0.0063190000
C                -0.2504770000        0.4129690000       -2.9501790000
H                -0.8896840000        1.2017570000       -2.5463380000
C                -0.2502810000       -0.4128560000        2.9503130000
H                -0.8895660000       -1.2016100000        2.5465270000
C                -0.1951740000        0.1680030000       -4.3204930000
C                -2.4252210000       -3.4772660000       -0.0559730000
H                -2.2755060000       -4.5567280000       -0.0665310000
C                -2.4251920000        3.4773180000        0.0562140000
H                -2.2754670000        4.5567770000        0.0668600000
C                -3.7513400000       -1.5013170000       -0.0541790000
H                -4.7182760000       -0.9987700000       -0.0722410000
C                 3.5647070000       -3.5468850000       -0.4572350000
C                 2.9389470000        2.9678620000        1.5599540000
H                 3.1858850000        3.3379470000        2.5565520000
C                 2.0202530000       -1.9388300000       -1.3729800000
C                 3.5649570000        3.5467380000        0.4570410000
C                -2.5890530000       -0.7422770000       -0.0168370000
C                 0.6561250000        0.8586240000        4.7458330000
H                 0.7350590000        1.0945300000        5.8109580000
C                 2.9386600000       -2.9679480000       -1.5600940000
H                 3.1855040000       -3.3380330000       -2.5567150000
C                 2.0204610000        1.9388000000        1.3729220000
C                 1.7316600000        1.4634360000        0.0645150000
C                -0.1948700000       -0.1678720000        4.3206200000
C                 0.6557360000       -0.8585340000       -4.7457800000
H                 0.7345860000       -1.0944260000       -5.8109150000
C                -3.6980370000        2.9024590000        0.0731580000
C                 1.2994140000        1.2752100000        2.4693130000
C                -3.6980590000       -2.9023960000       -0.0730720000
C                 2.3648090000       -2.0646190000        1.0343730000
H                 2.1569410000       -1.7292380000        2.0524620000
C                 1.2991620000       -1.2751880000       -2.4693110000
C                 3.2746790000        3.0957250000       -0.8447820000
C                 1.4036720000        1.5808650000        3.8248180000
H                 2.0646220000        2.3815440000        4.1600070000
C                 2.3648580000        2.0645270000       -1.0344590000
H                 2.1569010000        1.7291410000       -2.0525280000
C                -1.3003510000       -2.6648870000       -0.0255460000
H                -0.3009360000       -3.1042840000       -0.0107480000
C                -3.7513300000        1.5013820000        0.0541820000
H                -4.7182720000        0.9988420000        0.0721410000
C                -1.3003270000        2.6649300000        0.0258230000
H                -0.3009090000        3.1043210000        0.0111390000
C                 3.2745460000       -3.0958770000        0.8446150000
C                 1.4033080000       -1.5808290000       -3.8248280000
H                 2.0641940000       -2.3815380000       -4.1600740000
C                -4.9903720000       -3.7177500000       -0.1096080000
C                -5.7734970000       -3.3478300000       -1.3834840000
H                -6.0473680000       -2.2788490000       -1.4047070000
H                -6.7077800000       -3.9346140000       -1.4288090000
H                -5.1832520000       -3.5716530000       -2.2897150000
C                -1.0149050000        0.9723990000       -5.2860670000
H                -0.3623950000        1.4852450000       -6.0136210000
H                -1.6199130000        1.7308280000       -4.7648740000
H                -1.6937640000        0.3157310000       -5.8571240000
C                -5.8290910000       -3.3743090000        1.1360920000
H                -5.2766990000       -3.6111380000        2.0627030000
H                -6.7611060000       -3.9663690000        1.1315470000
H                -6.1099840000       -2.3074010000        1.1642500000
C                -2.5890470000        0.7423320000        0.0169030000
C                -1.0145660000       -0.9722180000        5.2862660000
H                -0.3620100000       -1.4852340000        6.0136600000
H                -1.6197850000       -1.7305060000        4.7651130000
H                -1.6932170000       -0.3154920000        5.8575010000
C                -4.7154320000       -5.2261220000       -0.1187530000
H                -4.1324180000       -5.5320410000       -1.0048350000
H                -5.6741570000       -5.7719230000       -0.1452380000
H                -4.1718230000       -5.5498140000        0.7859600000
C                -4.9903460000        3.7178240000        0.1096260000
H                -4.1716730000        5.5499490000       -0.7857010000
C                -5.8289360000        3.3744930000       -1.1361910000
H                -5.2764420000        3.6113880000       -2.0627250000
H                -6.7609430000        3.9665660000       -1.1316990000
H                -6.1098400000        2.3075920000       -1.1644640000
C                -4.7153890000        5.2261920000        0.1189230000
H                -4.1324750000        5.5320330000        1.0050970000
H                -5.6741110000        5.7720010000        0.1453420000
C                -5.7736120000        3.3478080000        1.3833880000
H                -6.0475020000        2.2788300000        1.4044930000
H                -6.7078900000        3.9346040000        1.4286630000
H                -5.1834590000        3.5715470000        2.2897010000
C                 1.7315810000       -1.4634650000       -0.0645460000
